@<TRIPOS>MOLECULE
LIG
   20    19     1     0     0
SMALL
No Charge or Current Charge


@<TRIPOS>ATOM
      1 C1           3.5400     1.4200     0.0000 c3         1 LIG      -0.092100
      2 H1           3.6300     2.0620    -0.8840 hc         1 LIG       0.032700
      3 H2           4.3940     0.7320    -0.0000 hc         1 LIG       0.032700
      4 H3           3.6310     2.0620     0.8850 hc         1 LIG       0.032700
      5 C3           2.2090     0.6610    -0.0000 c3         1 LIG      -0.080400
      6 H7           2.1640     0.0010     0.8780 hc         1 LIG       0.038700
      7 H8           2.1640     0.0010    -0.8780 hc         1 LIG       0.038700
      8 C5           0.9850     1.5860     0.0000 c3         1 LIG      -0.079400
      9 H11          1.0310     2.2470    -0.8780 hc         1 LIG       0.038700
     10 H12          1.0310     2.2470     0.8790 hc         1 LIG       0.038700
     11 C6          -0.3530     0.8360     0.0000 c3         1 LIG      -0.079400
     12 H13         -0.3990     0.1750     0.8780 hc         1 LIG       0.038700
     13 H14         -0.3990     0.1750    -0.8790 hc         1 LIG       0.038700
     14 C4          -1.5770     1.7610     0.0000 c3         1 LIG      -0.080400
     15 H9          -1.5320     2.4210     0.8780 hc         1 LIG       0.038700
     16 H10         -1.5320     2.4210    -0.8780 hc         1 LIG       0.038700
     17 C2          -2.9070     1.0020     0.0000 c3         1 LIG      -0.092100
     18 H4          -2.9980     0.3600    -0.8840 hc         1 LIG       0.032700
     19 H5          -2.9980     0.3600     0.8850 hc         1 LIG       0.032700
     20 H6          -3.7620     1.6900     0.0000 hc         1 LIG       0.032700
@<TRIPOS>BOND
     1     2     1 1   
     2     3     1 1   
     3     4     1 1   
     4     5     1 1   
     5     6     5 1   
     6     7     5 1   
     7     8     5 1   
     8     9     8 1   
     9    10     8 1   
    10    11     8 1   
    11    12    11 1   
    12    13    11 1   
    13    14    11 1   
    14    15    14 1   
    15    16    14 1   
    16    17    14 1   
    17    18    17 1   
    18    19    17 1   
    19    20    17 1   
@<TRIPOS>SUBSTRUCTURE
     1 LIG         1 TEMP              0 ****  ****    0 ROOT
