@<TRIPOS>MOLECULE
LIG
   17    16     1     0     0
SMALL
No Charge or Current Charge


@<TRIPOS>ATOM
      1 C1           3.5400     1.4200     0.0000 c3         1 LIG      -0.092100
      2 H1           3.5860     0.7730    -0.8850 hc         1 LIG       0.032367
      3 H2           3.5860     0.7730     0.8850 hc         1 LIG       0.032367
      4 H3           4.4380     2.0490     0.0000 hc         1 LIG       0.032367
      5 C3           2.2630     2.2670     0.0000 c3         1 LIG      -0.080400
      6 H7           2.2620     2.9290     0.8780 hc         1 LIG       0.037700
      7 H8           2.2620     2.9290    -0.8780 hc         1 LIG       0.037700
      8 C5           0.9790     1.4280     0.0000 c3         1 LIG      -0.079400
      9 H11          0.9790     0.7650     0.8780 hc         1 LIG       0.039700
     10 H12          0.9790     0.7650    -0.8790 hc         1 LIG       0.039700
     11 C4          -0.3050     2.2670    -0.0000 c3         1 LIG      -0.080400
     12 H9          -0.3040     2.9290     0.8780 hc         1 LIG       0.037700
     13 H10         -0.3040     2.9290    -0.8780 hc         1 LIG       0.037700
     14 C2          -1.5820     1.4200     0.0000 c3         1 LIG      -0.092100
     15 H4          -1.6280     0.7730    -0.8850 hc         1 LIG       0.032367
     16 H5          -2.4790     2.0490    -0.0000 hc         1 LIG       0.032367
     17 H6          -1.6280     0.7730     0.8850 hc         1 LIG       0.032367
@<TRIPOS>BOND
     1     2     1 1   
     2     3     1 1   
     3     4     1 1   
     4     5     1 1   
     5     6     5 1   
     6     7     5 1   
     7     8     5 1   
     8     9     8 1   
     9    10     8 1   
    10    11     8 1   
    11    12    11 1   
    12    13    11 1   
    13    14    11 1   
    14    15    14 1   
    15    16    14 1   
    16    17    14 1   
@<TRIPOS>SUBSTRUCTURE
     1 LIG         1 TEMP              0 ****  ****    0 ROOT
